Program Version,EnergyPlus, Version 9.4.0-998c4b761e, YMD=2021.03.24 15:01,
   ************* Beginning Zone Sizing Calculations
   ** Warning ** Site:GroundTemperature:BuildingSurface: Some values fall outside the range of 15-25C.
   **   ~~~   ** These values may be inappropriate.  Please consult the Input Output Reference for more details.
   ** Warning ** GetSurfaceData: Entered Zone Floor Areas differ from calculated Zone Floor Area(s).
   **   ~~~   ** ...use Output:Diagnostics,DisplayExtraWarnings; to show more details on individual zones.
   ** Warning ** CalculateZoneVolume: 6 zones are not fully enclosed. For more details use:  Output:Diagnostics,DisplayExtrawarnings; 
   ** Warning ** CheckUsedConstructions: There are 1 nominally unused constructions in input.
   **   ~~~   ** For explicit details on each unused construction, use Output:Diagnostics,DisplayExtraWarnings;
   ** Warning ** GetPlant/CondenserLoopData: PlantLoop="CHW_LOOP", Invalid choice.
   **   ~~~   ** ...Load Distribution Scheme="".
   **   ~~~   ** Will default to SequentialLoad.
   ** Warning ** GetPlant/CondenserLoopData: PlantLoop="HW_LOOP", Invalid choice.
   **   ~~~   ** ...Load Distribution Scheme="".
   **   ~~~   ** Will default to SequentialLoad.
   ** Warning ** GetPlant/CondenserLoopData: CondenserLoop="CNDW_LOOP", Invalid choice.
   **   ~~~   ** ...Load Distribution Scheme="".
   **   ~~~   ** Will default to SequentialLoad.
   ** Warning ** Calculated design heating load for zone=CORE_BOT is zero.
   **   ~~~   ** Check Sizing:Zone and ZoneControl:Thermostat inputs.
   ** Warning ** Calculated design heating load for zone=CORE_TOP is zero.
   **   ~~~   ** Check Sizing:Zone and ZoneControl:Thermostat inputs.
   ** Warning ** Calculated design heating load for zone=ZONE_BOT_N is zero.
   **   ~~~   ** Check Sizing:Zone and ZoneControl:Thermostat inputs.
   ** Warning ** Calculated design heating load for zone=ZONE_BOT_E is zero.
   **   ~~~   ** Check Sizing:Zone and ZoneControl:Thermostat inputs.
   ** Warning ** Calculated design heating load for zone=ZONE_BOT_S is zero.
   **   ~~~   ** Check Sizing:Zone and ZoneControl:Thermostat inputs.
   ** Warning ** Calculated design heating load for zone=ZONE_BOT_W is zero.
   **   ~~~   ** Check Sizing:Zone and ZoneControl:Thermostat inputs.
   ** Warning ** Calculated design heating load for zone=ZONE_MID_W is zero.
   **   ~~~   ** Check Sizing:Zone and ZoneControl:Thermostat inputs.
   ** Warning ** Calculated design heating load for zone=ZONE_TOP_N is zero.
   **   ~~~   ** Check Sizing:Zone and ZoneControl:Thermostat inputs.
   ** Warning ** Calculated design heating load for zone=ZONE_TOP_E is zero.
   **   ~~~   ** Check Sizing:Zone and ZoneControl:Thermostat inputs.
   ** Warning ** Calculated design heating load for zone=ZONE_TOP_S is zero.
   **   ~~~   ** Check Sizing:Zone and ZoneControl:Thermostat inputs.
   ** Warning ** Calculated design heating load for zone=ZONE_TOP_W is zero.
   **   ~~~   ** Check Sizing:Zone and ZoneControl:Thermostat inputs.
   ************* Beginning System Sizing Calculations
   ************* Beginning Plant Sizing Calculations
   ** Warning ** Invalid entry for Dehumidification Control Type :MULTIMODE
   **   ~~~   ** In CoilSystem:Cooling:DX="BOT_DOAS_DX_SYSTEM".
   **   ~~~   ** Valid only with cooling coil type = Coil:Cooling:DX:TwoStageWithHumidityControlMode or CoilSystem:Cooling:DX:HeatExchangerAssisted.
   **   ~~~   ** Setting Dehumidification Control Type to None.
   ** Warning ** Invalid entry for Dehumidification Control Type :MULTIMODE
   **   ~~~   ** In CoilSystem:Cooling:DX="MID_DOAS_DX_SYSTEM".
   **   ~~~   ** Valid only with cooling coil type = Coil:Cooling:DX:TwoStageWithHumidityControlMode or CoilSystem:Cooling:DX:HeatExchangerAssisted.
   **   ~~~   ** Setting Dehumidification Control Type to None.
   ** Warning ** Invalid entry for Dehumidification Control Type :MULTIMODE
   **   ~~~   ** In CoilSystem:Cooling:DX="TOP_DOAS_DX_SYSTEM".
   **   ~~~   ** Valid only with cooling coil type = Coil:Cooling:DX:TwoStageWithHumidityControlMode or CoilSystem:Cooling:DX:HeatExchangerAssisted.
   **   ~~~   ** Setting Dehumidification Control Type to None.
   ** Warning ** The Standard Ratings is calculated for Coil:Cooling:DX:SingleSpeed = BOT_DOAS_DX but not at the AHRI test condition due to curve out of bound.
   **   ~~~   **  Review the Standard Ratings calculations in the Engineering Reference for this coil type. Also, use Output:Diagnostics, DisplayExtraWarnings for further guidance.
   ** Warning ** The Standard Ratings is calculated for Coil:Cooling:DX:SingleSpeed = MID_DOAS_DX but not at the AHRI test condition due to curve out of bound.
   **   ~~~   **  Review the Standard Ratings calculations in the Engineering Reference for this coil type. Also, use Output:Diagnostics, DisplayExtraWarnings for further guidance.
   ** Warning ** The Standard Ratings is calculated for Coil:Cooling:DX:SingleSpeed = TOP_DOAS_DX but not at the AHRI test condition due to curve out of bound.
   **   ~~~   **  Review the Standard Ratings calculations in the Engineering Reference for this coil type. Also, use Output:Diagnostics, DisplayExtraWarnings for further guidance.
   ** Warning ** Check input. Calculated Pump Efficiency=0.15% which is less than 50%, for pump=HW_PUMP
   **   ~~~   ** Calculated Pump_Efficiency % =Total_Efficiency % [0.1] / Motor_Efficiency % [90.0]
   **   ~~~   ** Total_Efficiency % =(Rated_Volume_Flow_Rate [2.1E-004] * Rated_Pump_Head [200000.0] / Rated_Power_Use [30000.0]) * 100.
   ** Warning ** FuelFactors: PROPANE already entered. Previous entry will be used.
   ** Warning ** FuelFactors: PROPANE already entered. Previous entry will be used.
   ** Warning ** FuelFactors: PROPANE already entered. Previous entry will be used.
   ************* Testing Individual Branch Integrity
   ************* All Branches passed integrity testing
   ************* Testing Individual Supply Air Path Integrity
   ************* All Supply Air Paths passed integrity testing
   ************* Testing Individual Return Air Path Integrity
   ************* All Return Air Paths passed integrity testing
   ************* No node connection errors were found.
   ************* Beginning Simulation
   ** Warning ** CHILLER:ELECTRIC:REFORMULATEDEIR "SGP_CHILLER": The evaporator outlet temperature (21.10 C) is outside the range of evaporator outlet temperatures (X var) given in Cooling Capacity Function of Temperature biquadratic curve = WC_CENT_2010_PB_CAPFT
   **   ~~~   ** The range specified = 5.00 C to 10.00 C. Environment=SGP_DESIGN_DAY_FEB, at Simulation time=02/21 07:00 - 07:10
   ** Warning ** CHILLER:ELECTRIC:REFORMULATEDEIR "SGP_CHILLER": The evaporator outlet temperature (21.10 C) is outside the range of evaporator outlet temperatures (X var) given in Electric Input to Cooling Output Ratio Function of Temperature biquadratic curve = WC_CENT_2010_PB_EIRFT
   **   ~~~   ** The range specified = 5.00 C to 10.00 C. Environment=SGP_DESIGN_DAY_FEB, at Simulation time=02/21 07:00 - 07:10
   ** Warning ** CHILLER:ELECTRIC:REFORMULATEDEIR "SGP_CHILLER": The condenser outlet temperature (30.66 C) is outside the range of condenser outlet temperatures (X var) given in Electric Input to Cooling Output Ratio Function of Part-load Ratio bicubic curve = WC_CENT_GT600_2010_PA_EIRFPLR
   **   ~~~   ** The range specified = 31.13 C to 36.52 C. Environment=RUNPERIOD 1, at Simulation time=01/08 07:00 - 07:10
   ** Warning ** CHILLER:ELECTRIC:REFORMULATEDEIR "SGP_CHILLER": The part-load ratio (0.100) is outside the range of part-load ratios (Y var) given in Electric Input to Cooling Output Ratio Function of Part-load Ratio bicubic curve = WC_CENT_GT600_2010_PA_EIRFPLR
   **   ~~~   ** The range specified = 0.190 to 1.030. Environment=RUNPERIOD 1, at Simulation time=01/08 07:00 - 07:10
   ************* Simulation Error Summary *************
   ************* There are 1 unused objects in input.
   ************* Use Output:Diagnostics,DisplayUnusedObjects; to see them.
   ************* There are 38 unused schedules in input.
   ************* There are 36 unused week schedules in input.
   ************* There are 36 unused day schedules in input.
   ************* Use Output:Diagnostics,DisplayUnusedSchedules; to see them.
   *************
   ************* ===== Recurring Error Summary =====
   ************* The following recurring error messages occurred.
   *************
   *************  ** Warning ** CHILLER:ELECTRIC:REFORMULATEDEIR "SGP_CHILLER": The evap outlet temp range in Cooling Capacity Function of Temp curve error continues.
   *************  **   ~~~   **   This error occurred 54408 total times;
   *************  **   ~~~   **   during Warmup 0 times;
   *************  **   ~~~   **   during Sizing 0 times.
   *************  **   ~~~   **   Max=25.005393  Min=15.
   *************
   *************  ** Warning ** CHILLER:ELECTRIC:REFORMULATEDEIR "SGP_CHILLER": The evap outlet temp range in Electric Input to Cooling Output Ratio Function of Temp curve error continues.
   *************  **   ~~~   **   This error occurred 54408 total times;
   *************  **   ~~~   **   during Warmup 0 times;
   *************  **   ~~~   **   during Sizing 0 times.
   *************  **   ~~~   **   Max=25.005393  Min=15.
   *************
   *************  ** Warning ** CHILLER:ELECTRIC:REFORMULATEDEIR "SGP_CHILLER": The cond outlet temp range in Electric Input to Cooling Output Ratio Function of PLR curve error continues.
   *************  **   ~~~   **   This error occurred 3486 total times;
   *************  **   ~~~   **   during Warmup 0 times;
   *************  **   ~~~   **   during Sizing 0 times.
   *************  **   ~~~   **   Max=31.129957  Min=29.643492
   *************
   *************  ** Warning ** CHILLER:ELECTRIC:REFORMULATEDEIR "SGP_CHILLER": The part-load ratio range in Electric Input to Cooling Output Ratio Function of PLRatio curve error continues.
   *************  **   ~~~   **   This error occurred 3474 total times;
   *************  **   ~~~   **   during Warmup 0 times;
   *************  **   ~~~   **   during Sizing 0 times.
   *************  **   ~~~   **   Max=0.189179  Min=0.1
   *************
   *************
   ************* ===== Final Error Summary =====
   ************* The following error categories occurred.  Consider correcting or noting.
   ************* Nominally Unused Constructions
   ************* ..The nominally unused constructions warning is provided to alert you to potential conditions that can cause
   ************* ..extra time during simulation. Each construction is calculated by the algorithm indicated in the HeatBalanceAlgorithm
   ************* ..object. You may remove the constructions indicated (when you use the DisplayExtraWarnings option).
   *************
   ************* EnergyPlus Warmup Error Summary. During Warmup: 0 Warning; 0 Severe Errors.
   ************* EnergyPlus Sizing Error Summary. During Sizing: 18 Warning; 0 Severe Errors.
   ************* EnergyPlus Completed Successfully-- 115808 Warning; 0 Severe Errors; Elapsed Time=00hr 03min 48.78sec
