Program Version,EnergyPlus, Version 9.4.0-998c4b761e, YMD=2021.03.30 23:05,
   ************* Beginning Zone Sizing Calculations
   ** Warning ** Site:GroundTemperature:BuildingSurface: Some values fall outside the range of 15-25C.
   **   ~~~   ** These values may be inappropriate.  Please consult the Input Output Reference for more details.
   ** Warning ** GetSurfaceData: Entered Zone Floor Areas differ from calculated Zone Floor Area(s).
   **   ~~~   ** ...use Output:Diagnostics,DisplayExtraWarnings; to show more details on individual zones.
   ** Warning ** CalculateZoneVolume: 6 zones are not fully enclosed. For more details use:  Output:Diagnostics,DisplayExtrawarnings; 
   ** Warning ** CheckUsedConstructions: There are 2 nominally unused constructions in input.
   **   ~~~   ** For explicit details on each unused construction, use Output:Diagnostics,DisplayExtraWarnings;
   ** Severe  ** InitConductionTransferFunctions: Found Material that is too thin and/or too highly conductive, material name = METAL_PANEL
   **   ~~~   ** High conductivity Material layers are not well supported for internal source constructions, material conductivity = 62.000 [W/m-K]
   **   ~~~   ** Material thermal diffusivity = 1.686E-005 [m2/s]
   **   ~~~   ** Material with this thermal diffusivity should have thickness > 0.17423 [m]
   ** Warning ** GetPlant/CondenserLoopData: PlantLoop="RADCOOLING_LOOP", Invalid choice.
   **   ~~~   ** ...Load Distribution Scheme="".
   **   ~~~   ** Will default to SequentialLoad.
   ** Warning ** GetPlant/CondenserLoopData: PlantLoop="HW_LOOP", Invalid choice.
   **   ~~~   ** ...Load Distribution Scheme="".
   **   ~~~   ** Will default to SequentialLoad.
   ** Warning ** SetUpZoneSizingArrays: Sizing for Zone="BOT_TOILET" will use Sizing:Zone specifications listed for Zone="CORE_BOT".
   ** Warning ** SetUpZoneSizingArrays: Sizing for Zone="MID_TOILET" will use Sizing:Zone specifications listed for Zone="CORE_BOT".
   ** Warning ** SetUpZoneSizingArrays: Sizing for Zone="TOP_TOILET" will use Sizing:Zone specifications listed for Zone="CORE_BOT".
   ** Warning ** Calculated design heating load for zone=CORE_BOT is zero.
   **   ~~~   ** Check Sizing:Zone and ZoneControl:Thermostat inputs.
   ** Warning ** Calculated design heating load for zone=CORE_MID is zero.
   **   ~~~   ** Check Sizing:Zone and ZoneControl:Thermostat inputs.
   ** Warning ** Calculated design heating load for zone=CORE_TOP is zero.
   **   ~~~   ** Check Sizing:Zone and ZoneControl:Thermostat inputs.
   ** Warning ** Calculated design heating load for zone=ZONE_BOT_N is zero.
   **   ~~~   ** Check Sizing:Zone and ZoneControl:Thermostat inputs.
   ** Warning ** Calculated design heating load for zone=ZONE_BOT_E is zero.
   **   ~~~   ** Check Sizing:Zone and ZoneControl:Thermostat inputs.
   ** Warning ** Calculated design heating load for zone=ZONE_BOT_S is zero.
   **   ~~~   ** Check Sizing:Zone and ZoneControl:Thermostat inputs.
   ** Warning ** Calculated design heating load for zone=ZONE_BOT_W is zero.
   **   ~~~   ** Check Sizing:Zone and ZoneControl:Thermostat inputs.
   ** Warning ** Calculated design heating load for zone=ZONE_MID_N is zero.
   **   ~~~   ** Check Sizing:Zone and ZoneControl:Thermostat inputs.
   ** Warning ** Calculated design heating load for zone=ZONE_MID_E is zero.
   **   ~~~   ** Check Sizing:Zone and ZoneControl:Thermostat inputs.
   ** Warning ** Calculated design heating load for zone=ZONE_MID_S is zero.
   **   ~~~   ** Check Sizing:Zone and ZoneControl:Thermostat inputs.
   ** Warning ** Calculated design heating load for zone=ZONE_MID_W is zero.
   **   ~~~   ** Check Sizing:Zone and ZoneControl:Thermostat inputs.
   ** Warning ** Calculated design heating load for zone=ZONE_TOP_N is zero.
   **   ~~~   ** Check Sizing:Zone and ZoneControl:Thermostat inputs.
   ** Warning ** Calculated design heating load for zone=ZONE_TOP_E is zero.
   **   ~~~   ** Check Sizing:Zone and ZoneControl:Thermostat inputs.
   ** Warning ** Calculated design heating load for zone=ZONE_TOP_S is zero.
   **   ~~~   ** Check Sizing:Zone and ZoneControl:Thermostat inputs.
   ** Warning ** Calculated design heating load for zone=ZONE_TOP_W is zero.
   **   ~~~   ** Check Sizing:Zone and ZoneControl:Thermostat inputs.
   ** Warning ** Calculated design cooling load for zone=BOT_TOILET is zero.
   **   ~~~   ** Check Sizing:Zone and ZoneControl:Thermostat inputs.
   ** Warning ** Calculated design heating load for zone=BOT_TOILET is zero.
   **   ~~~   ** Check Sizing:Zone and ZoneControl:Thermostat inputs.
   ** Warning ** Calculated design cooling load for zone=MID_TOILET is zero.
   **   ~~~   ** Check Sizing:Zone and ZoneControl:Thermostat inputs.
   ** Warning ** Calculated design heating load for zone=MID_TOILET is zero.
   **   ~~~   ** Check Sizing:Zone and ZoneControl:Thermostat inputs.
   ** Warning ** Calculated design cooling load for zone=TOP_TOILET is zero.
   **   ~~~   ** Check Sizing:Zone and ZoneControl:Thermostat inputs.
   ** Warning ** Calculated design heating load for zone=TOP_TOILET is zero.
   **   ~~~   ** Check Sizing:Zone and ZoneControl:Thermostat inputs.
   ************* Beginning System Sizing Calculations
   ** Warning ** ManageSizing: Calculated Heating Design Air Flow Rate for System=VAV_BOT is zero.
   **   ~~~   ** Check Sizing:Zone and ZoneControl:Thermostat inputs.
   ** Warning ** ManageSizing: Calculated Heating Design Air Flow Rate for System=VAV_MID is zero.
   **   ~~~   ** Check Sizing:Zone and ZoneControl:Thermostat inputs.
   ** Warning ** ManageSizing: Calculated Heating Design Air Flow Rate for System=VAV_TOP is zero.
   **   ~~~   ** Check Sizing:Zone and ZoneControl:Thermostat inputs.
   ************* Beginning Plant Sizing Calculations
   ** Warning ** In calculating the design coil UA for Coil:Cooling:Water VAV_BOT_COIL
   **   ~~~   ** the outlet chilled water design enthalpy is greater than the inlet air design enthalpy.
   **   ~~~   ** To correct this condition the design chilled water flow rate will be increased from 5.25585E-004
   **   ~~~   ** to 9.62547E-004 m3/s
   ** Severe  ** Calculation of cooling coil design UA failed for coil VAV_BOT_COIL
   **   ~~~   **   Bad starting values for UA
   **   ~~~   **  Coil design UA set to 45602.373204 [W/C]
   ** Warning ** In calculating the design coil UA for Coil:Cooling:Water VAV_MID_COIL
   **   ~~~   ** the outlet chilled water design enthalpy is greater than the inlet air design enthalpy.
   **   ~~~   ** To correct this condition the design chilled water flow rate will be increased from 3.65126E-003
   **   ~~~   ** to 8.67326E-003 m3/s
   ** Severe  ** Calculation of cooling coil design UA failed for coil VAV_MID_COIL
   **   ~~~   **   Bad starting values for UA
   **   ~~~   **  Coil design UA set to 678909.085515 [W/C]
   ** Warning ** In calculating the design coil UA for Coil:Cooling:Water VAV_TOP_COIL
   **   ~~~   ** the outlet chilled water design enthalpy is greater than the inlet air design enthalpy.
   **   ~~~   ** To correct this condition the design chilled water flow rate will be increased from 4.15740E-004
   **   ~~~   ** to 8.48417E-004 m3/s
   ** Severe  ** Calculation of cooling coil design UA failed for coil VAV_TOP_COIL
   **   ~~~   **   Bad starting values for UA
   **   ~~~   **  Coil design UA set to 46182.238039 [W/C]
   ** Warning ** SizePlantLoop: Calculated Plant Sizing Design Volume Flow Rate=[0.00] is too small. Set to 0.0
   **   ~~~   ** ..occurs for PlantLoop=HW_LOOP
   ** Warning ** SizePump: Calculated Pump Nominal Volume Flow Rate=[0.00] is too small. Set to 0.0
   **   ~~~   ** ..occurs for Pump=HW_PUMP
   ** Warning ** Check input. Calculated Pump Efficiency=0.00% which is less than 50%, for pump=HW_PUMP
   **   ~~~   ** Calculated Pump_Efficiency % =Total_Efficiency % [0.0] / Motor_Efficiency % [90.0]
   **   ~~~   ** Total_Efficiency % =(Rated_Volume_Flow_Rate [0.0] * Rated_Pump_Head [200000.0] / Rated_Power_Use [30000.0]) * 100.
   ** Warning ** Check input. Pump nominal flow rate is set or calculated = 0, for pump=HW_PUMP
   ** Warning ** FuelFactors: PROPANE already entered. Previous entry will be used.
   ** Warning ** FuelFactors: PROPANE already entered. Previous entry will be used.
   ** Warning ** FuelFactors: PROPANE already entered. Previous entry will be used.
   ************* Testing Individual Branch Integrity
   ************* All Branches passed integrity testing
   ************* Testing Individual Supply Air Path Integrity
   ************* All Supply Air Paths passed integrity testing
   ************* Testing Individual Return Air Path Integrity
   ************* All Return Air Paths passed integrity testing
   ************* No node connection errors were found.
   ************* Beginning Simulation
   ** Severe  ** CheckWarmupConvergence: Loads Initialization, Zone="CORE_MID" did not converge after 40 warmup days.
   **   ~~~   ** See Warmup Convergence Information in .eio file for details.
   **   ~~~   ** ...Environment(SizingPeriod)="SGP_DESIGN_DAY_FEB"
   **   ~~~   ** ..Max Temp Comparison = 5.82E-004 vs Temperature Convergence Tolerance=0.20 - Pass Convergence
   **   ~~~   ** ..Min Temp Comparison = 3.95E-004 vs Temperature Convergence Tolerance=0.20 - Pass Convergence
   **   ~~~   ** ..Max Heat Load Comparison = 8.1542E-004 vs Loads Convergence Tolerance=4.00E-002 - Pass Convergence
   **   ~~~   ** ..Max Cool Load Comparison = 6.1701E-002 vs Loads Convergence Tolerance=4.00E-002 - Fail Convergence
   ** Severe  ** CheckWarmupConvergence: Loads Initialization, Zone="ZONE_TOP_N" did not converge after 40 warmup days.
   **   ~~~   ** ...Environment(SizingPeriod)="SGP_DESIGN_DAY_FEB"
   **   ~~~   ** ..Max Temp Comparison = 6.46E-004 vs Temperature Convergence Tolerance=0.20 - Pass Convergence
   **   ~~~   ** ..Min Temp Comparison = 3.26E-004 vs Temperature Convergence Tolerance=0.20 - Pass Convergence
   **   ~~~   ** ..Max Heat Load Comparison = 0.2444 vs Loads Convergence Tolerance=4.00E-002 - Fail Convergence
   **   ~~~   ** ..Max Cool Load Comparison = 0.2419 vs Loads Convergence Tolerance=4.00E-002 - Fail Convergence
   ** Severe  ** CheckWarmupConvergence: Loads Initialization, Zone="ZONE_TOP_S" did not converge after 40 warmup days.
   **   ~~~   ** ...Environment(SizingPeriod)="SGP_DESIGN_DAY_FEB"
   **   ~~~   ** ..Max Temp Comparison = 6.53E-004 vs Temperature Convergence Tolerance=0.20 - Pass Convergence
   **   ~~~   ** ..Min Temp Comparison = 3.26E-004 vs Temperature Convergence Tolerance=0.20 - Pass Convergence
   **   ~~~   ** ..Max Heat Load Comparison = 0.3397 vs Loads Convergence Tolerance=4.00E-002 - Fail Convergence
   **   ~~~   ** ..Max Cool Load Comparison = 0.1233 vs Loads Convergence Tolerance=4.00E-002 - Fail Convergence
   ** Severe  ** CheckWarmupConvergence: Loads Initialization, Zone="TOP_PLENUM" did not converge after 40 warmup days.
   **   ~~~   ** ...Environment(SizingPeriod)="SGP_DESIGN_DAY_FEB"
   **   ~~~   ** ..Max Temp Comparison = 4.35E-004 vs Temperature Convergence Tolerance=0.20 - Pass Convergence
   **   ~~~   ** ..Min Temp Comparison = 4.87E-002 vs Temperature Convergence Tolerance=0.20 - Pass Convergence
   **   ~~~   ** ..Max Heat Load Comparison = 2.6733 vs Loads Convergence Tolerance=4.00E-002 - Pass Convergence
   **   ~~~   ** ..Max Cool Load Comparison = 7.4546E-002 vs Loads Convergence Tolerance=4.00E-002 - Fail Convergence
   ** Warning ** CHILLER:ELECTRIC:REFORMULATEDEIR "SG_CHILLER_1": The evaporator outlet temperature (23.83 C) is outside the range of evaporator outlet temperatures (X var) given in Cooling Capacity Function of Temperature biquadratic curve = WC_CENT_2010_PB_CAPFT
   **   ~~~   ** The range specified = 5.00 C to 10.00 C. Environment=SGP_DESIGN_DAY_FEB, at Simulation time=02/21 07:00 - 07:10
   ** Warning ** CHILLER:ELECTRIC:REFORMULATEDEIR "SG_CHILLER_1": The evaporator outlet temperature (23.83 C) is outside the range of evaporator outlet temperatures (X var) given in Electric Input to Cooling Output Ratio Function of Temperature biquadratic curve = WC_CENT_2010_PB_EIRFT
   **   ~~~   ** The range specified = 5.00 C to 10.00 C. Environment=SGP_DESIGN_DAY_FEB, at Simulation time=02/21 07:00 - 07:10
   ** Warning ** CHILLER:ELECTRIC:REFORMULATEDEIR "SG_CHILLER_1": The condenser outlet temperature (40.62 C) is outside the range of condenser outlet temperatures (X var) given in Electric Input to Cooling Output Ratio Function of Part-load Ratio bicubic curve = WC_CENT_GT600_2010_PA_EIRFPLR
   **   ~~~   ** The range specified = 31.13 C to 36.52 C. Environment=SGP_DESIGN_DAY_FEB, at Simulation time=02/21 07:00 - 07:10
   ** Warning ** SimHVAC: Maximum iterations (20) exceeded for all HVAC loops, at SGP_DESIGN_DAY_FEB, 02/21 07:00 - 07:10
   **   ~~~   ** The solution for one or more of the Air Loop HVAC systems did not appear to converge
   **   ~~~   ** ...use Output:Diagnostics,DisplayExtraWarnings; to show more details on each max iteration exceeded.
   ** Warning ** SimHVAC: Maximum iterations (20) exceeded for all HVAC loops, at SGP_DESIGN_DAY_FEB, 02/21 07:10 - 07:13
   **   ~~~   ** The solution for one or more of the Air Loop HVAC systems did not appear to converge
   ** Warning ** SimHVAC: Maximum iterations (20) exceeded for all HVAC loops, at SGP_DESIGN_DAY_FEB, 02/21 07:43 - 07:47
   **   ~~~   ** The solution for one or more of the Air Loop HVAC systems did not appear to converge
   ** Warning ** SimHVAC: Maximum iterations (20) exceeded for all HVAC loops, at SGP_DESIGN_DAY_FEB, 02/21 08:00 - 08:10
   **   ~~~   ** The solution for one or more of the Air Loop HVAC systems did not appear to converge
   ** Warning ** SimHVAC: Maximum iterations (20) exceeded for all HVAC loops, at SGP_DESIGN_DAY_FEB, 02/21 09:50 - 10:00
   **   ~~~   ** The solution for one or more of the Air Loop HVAC systems did not appear to converge
   ** Warning ** SimHVAC: Maximum iterations (20) exceeded for all HVAC loops, at SGP_DESIGN_DAY_FEB, 02/21 17:10 - 17:20
   **   ~~~   ** The solution for one or more of the Air Loop HVAC systems did not appear to converge
   ** Warning ** SimHVAC: Maximum iterations (20) exceeded for all HVAC loops, at SGP_DESIGN_DAY_APR, 04/21 07:10 - 07:13
   **   ~~~   ** The solution for one or more of the Air Loop HVAC systems did not appear to converge
   ** Warning ** SimHVAC: Maximum iterations (20) exceeded for all HVAC loops, at SGP_DESIGN_DAY_APR, 04/21 07:30 - 07:40
   **   ~~~   ** The solution for one or more of the Air Loop HVAC systems did not appear to converge
   ** Warning ** SimHVAC: Maximum iterations (20) exceeded for all HVAC loops, at SGP_DESIGN_DAY_APR, 04/21 17:15 - 17:17
   **   ~~~   ** The solution for one or more of the Air Loop HVAC systems did not appear to converge
   ** Warning ** SimHVAC: Maximum iterations (20) exceeded for all HVAC loops, at SGP_DESIGN_DAY_APR, 04/21 17:17 - 17:20
   **   ~~~   ** The solution for one or more of the Air Loop HVAC systems did not appear to converge
   ** Warning ** SimHVAC: Maximum iterations (20) exceeded for all HVAC loops, at SGP_DESIGN_DAY_APR, 04/21 17:30 - 17:40
   **   ~~~   ** The solution for one or more of the Air Loop HVAC systems did not appear to converge
   ** Warning ** SimHVAC: Maximum iterations (20) exceeded for all HVAC loops, at SGP_DESIGN_DAY_OCT, 10/21 07:10 - 07:20
   **   ~~~   ** The solution for one or more of the Air Loop HVAC systems did not appear to converge
   ** Warning ** SimHVAC: Maximum iterations (20) exceeded for all HVAC loops, at SGP_DESIGN_DAY_OCT, 10/21 07:30 - 07:40
   **   ~~~   ** The solution for one or more of the Air Loop HVAC systems did not appear to converge
   ** Warning ** SimHVAC: Maximum iterations (20) exceeded for all HVAC loops, at SGP_DESIGN_DAY_DEC, 12/21 17:20 - 17:30
   **   ~~~   ** The solution for one or more of the Air Loop HVAC systems did not appear to converge
   ************* Simulation Error Summary *************
   ************* There are 1 unused objects in input.
   ************* Use Output:Diagnostics,DisplayUnusedObjects; to see them.
   *************
   ************* ===== Recurring Error Summary =====
   ************* The following recurring error messages occurred.
   *************
   *************  ** Warning ** CHILLER:ELECTRIC:REFORMULATEDEIR "SG_CHILLER_1": The evap outlet temp range in Cooling Capacity Function of Temp curve error continues.
   *************  **   ~~~   **   This error occurred 81246 total times;
   *************  **   ~~~   **   during Warmup 0 times;
   *************  **   ~~~   **   during Sizing 0 times.
   *************  **   ~~~   **   Max=27.199347  Min=11.815058
   *************
   *************  ** Warning ** CHILLER:ELECTRIC:REFORMULATEDEIR "SG_CHILLER_1": The evap outlet temp range in Electric Input to Cooling Output Ratio Function of Temp curve error continues.
   *************  **   ~~~   **   This error occurred 81246 total times;
   *************  **   ~~~   **   during Warmup 0 times;
   *************  **   ~~~   **   during Sizing 0 times.
   *************  **   ~~~   **   Max=27.199347  Min=11.815058
   *************
   *************  ** Warning ** CHILLER:ELECTRIC:REFORMULATEDEIR "SG_CHILLER_1": The cond outlet temp range in Electric Input to Cooling Output Ratio Function of PLR curve error continues.
   *************  **   ~~~   **   This error occurred 81242 total times;
   *************  **   ~~~   **   during Warmup 0 times;
   *************  **   ~~~   **   during Sizing 0 times.
   *************  **   ~~~   **   Max=41.127705  Min=36.827221
   *************
   *************  ** Warning ** SimHVAC: Exceeding Maximum iterations for all HVAC loops, during SGP_DESIGN_DAY_DEC continues
   *************  **   ~~~   **   This error occurred 1 total times;
   *************  **   ~~~   **   during Warmup 0 times;
   *************  **   ~~~   **   during Sizing 0 times.
   *************
   *************  ** Warning ** SimHVAC: Exceeding Maximum iterations for all HVAC loops, during RUNPERIOD 1 continues
   *************  **   ~~~   **   This error occurred 239 total times;
   *************  **   ~~~   **   during Warmup 0 times;
   *************  **   ~~~   **   during Sizing 0 times.
   *************
   *************
   ************* ===== Final Error Summary =====
   ************* The following error categories occurred.  Consider correcting or noting.
   ************* Loads Initialization did not Converge
   ************* ..1) very high thermal mass such as very thick concrete (solution: increase max number of warmup
   ************* ..   days in the BUILDING object);
   ************* ..2) moderate mass and inadequate space conditioning such that the building keeps getting warmer
   ************* ..   and warmer on successive days (solution: add HVAC, check building thermal properties,
   ************* ..   check if infiltration is included, make sure HVAC properly controlled);
   ************* ..3) a soil layer modeled below the concrete slab - (solution remove this layer and read about
   ************* ..   ground temperatures in the Auxiliary Programs document).
   ************* ..4) unreasonable (too small) limits in the BUILDING object for temperature (.4 default) or
   ************* ..   loads tolerances (.04 default)
   ************* Nominally Unused Constructions
   ************* ..The nominally unused constructions warning is provided to alert you to potential conditions that can cause
   ************* ..extra time during simulation. Each construction is calculated by the algorithm indicated in the HeatBalanceAlgorithm
   ************* ..object. You may remove the constructions indicated (when you use the DisplayExtraWarnings option).
   *************
   ************* EnergyPlus Warmup Error Summary. During Warmup: 0 Warning; 4 Severe Errors.
   ************* EnergyPlus Sizing Error Summary. During Sizing: 33 Warning; 1 Severe Errors.
   ************* EnergyPlus Completed Successfully-- 244034 Warning; 8 Severe Errors; Elapsed Time=00hr 08min  3.36sec
