Program Version,EnergyPlus, Version 9.4.0-998c4b761e, YMD=2021.03.24 15:01,
   ************* Beginning Zone Sizing Calculations
   ** Warning ** Site:GroundTemperature:BuildingSurface: Some values fall outside the range of 15-25C.
   **   ~~~   ** These values may be inappropriate.  Please consult the Input Output Reference for more details.
   ** Warning ** GetSurfaceData: Entered Zone Floor Areas differ from calculated Zone Floor Area(s).
   **   ~~~   ** ...use Output:Diagnostics,DisplayExtraWarnings; to show more details on individual zones.
   ** Warning ** CalculateZoneVolume: 6 zones are not fully enclosed. For more details use:  Output:Diagnostics,DisplayExtrawarnings; 
   ** Warning ** CheckUsedConstructions: There are 1 nominally unused constructions in input.
   **   ~~~   ** For explicit details on each unused construction, use Output:Diagnostics,DisplayExtraWarnings;
   ** Warning ** GetPlant/CondenserLoopData: PlantLoop="CHW_LOOP", Invalid choice.
   **   ~~~   ** ...Load Distribution Scheme="".
   **   ~~~   ** Will default to SequentialLoad.
   ** Warning ** GetPlant/CondenserLoopData: PlantLoop="HW_LOOP", Invalid choice.
   **   ~~~   ** ...Load Distribution Scheme="".
   **   ~~~   ** Will default to SequentialLoad.
   ** Warning ** GetPlant/CondenserLoopData: CondenserLoop="CNDW_LOOP", Invalid choice.
   **   ~~~   ** ...Load Distribution Scheme="".
   **   ~~~   ** Will default to SequentialLoad.
   ** Warning ** Calculated design heating load for zone=CORE_BOT is zero.
   **   ~~~   ** Check Sizing:Zone and ZoneControl:Thermostat inputs.
   ** Warning ** Calculated design heating load for zone=CORE_MID is zero.
   **   ~~~   ** Check Sizing:Zone and ZoneControl:Thermostat inputs.
   ** Warning ** Calculated design heating load for zone=CORE_TOP is zero.
   **   ~~~   ** Check Sizing:Zone and ZoneControl:Thermostat inputs.
   ** Warning ** Calculated design heating load for zone=ZONE_BOT_N is zero.
   **   ~~~   ** Check Sizing:Zone and ZoneControl:Thermostat inputs.
   ** Warning ** Calculated design heating load for zone=ZONE_BOT_E is zero.
   **   ~~~   ** Check Sizing:Zone and ZoneControl:Thermostat inputs.
   ** Warning ** Calculated design heating load for zone=ZONE_BOT_S is zero.
   **   ~~~   ** Check Sizing:Zone and ZoneControl:Thermostat inputs.
   ** Warning ** Calculated design heating load for zone=ZONE_BOT_W is zero.
   **   ~~~   ** Check Sizing:Zone and ZoneControl:Thermostat inputs.
   ** Warning ** Calculated design heating load for zone=ZONE_MID_N is zero.
   **   ~~~   ** Check Sizing:Zone and ZoneControl:Thermostat inputs.
   ** Warning ** Calculated design heating load for zone=ZONE_MID_E is zero.
   **   ~~~   ** Check Sizing:Zone and ZoneControl:Thermostat inputs.
   ** Warning ** Calculated design heating load for zone=ZONE_MID_S is zero.
   **   ~~~   ** Check Sizing:Zone and ZoneControl:Thermostat inputs.
   ** Warning ** Calculated design heating load for zone=ZONE_MID_W is zero.
   **   ~~~   ** Check Sizing:Zone and ZoneControl:Thermostat inputs.
   ** Warning ** Calculated design heating load for zone=ZONE_TOP_N is zero.
   **   ~~~   ** Check Sizing:Zone and ZoneControl:Thermostat inputs.
   ** Warning ** Calculated design heating load for zone=ZONE_TOP_E is zero.
   **   ~~~   ** Check Sizing:Zone and ZoneControl:Thermostat inputs.
   ** Warning ** Calculated design heating load for zone=ZONE_TOP_S is zero.
   **   ~~~   ** Check Sizing:Zone and ZoneControl:Thermostat inputs.
   ** Warning ** Calculated design heating load for zone=ZONE_TOP_W is zero.
   **   ~~~   ** Check Sizing:Zone and ZoneControl:Thermostat inputs.
   ************* Beginning Plant Sizing Calculations
   ** Warning ** SizePlantLoop: Calculated Plant Sizing Design Volume Flow Rate=[0.00] is too small. Set to 0.0
   **   ~~~   ** ..occurs for PlantLoop=HW_LOOP
   ** Warning ** SizePump: Calculated Pump Nominal Volume Flow Rate=[0.00] is too small. Set to 0.0
   **   ~~~   ** ..occurs for Pump=HW_PUMP
   ** Warning ** Check input. Calculated Pump Efficiency=0.00% which is less than 50%, for pump=HW_PUMP
   **   ~~~   ** Calculated Pump_Efficiency % =Total_Efficiency % [0.0] / Motor_Efficiency % [90.0]
   **   ~~~   ** Total_Efficiency % =(Rated_Volume_Flow_Rate [0.0] * Rated_Pump_Head [200000.0] / Rated_Power_Use [30000.0]) * 100.
   ** Warning ** Check input. Pump nominal flow rate is set or calculated = 0, for pump=HW_PUMP
   ** Warning ** FuelFactors: PROPANE already entered. Previous entry will be used.
   ** Warning ** FuelFactors: PROPANE already entered. Previous entry will be used.
   ** Warning ** FuelFactors: PROPANE already entered. Previous entry will be used.
   ************* Testing Individual Branch Integrity
   ************* All Branches passed integrity testing
   ************* Testing Individual Supply Air Path Integrity
   ************* All Supply Air Paths passed integrity testing
   ************* Testing Individual Return Air Path Integrity
   ************* All Return Air Paths passed integrity testing
   ************* No node connection errors were found.
   ************* Beginning Simulation
   ** Warning ** CHILLER:ELECTRIC:REFORMULATEDEIR "SGP_CHILLER": The evaporator outlet temperature (15.00 C) is outside the range of evaporator outlet temperatures (X var) given in Cooling Capacity Function of Temperature biquadratic curve = WC_CENT_2010_PB_CAPFT
   **   ~~~   ** The range specified = 5.00 C to 10.00 C. Environment=SGP_DESIGN_DAY_FEB, at Simulation time=02/21 07:00 - 07:10
   ** Warning ** CHILLER:ELECTRIC:REFORMULATEDEIR "SGP_CHILLER": The evaporator outlet temperature (15.00 C) is outside the range of evaporator outlet temperatures (X var) given in Electric Input to Cooling Output Ratio Function of Temperature biquadratic curve = WC_CENT_2010_PB_EIRFT
   **   ~~~   ** The range specified = 5.00 C to 10.00 C. Environment=SGP_DESIGN_DAY_FEB, at Simulation time=02/21 07:00 - 07:10
   ** Warning ** CHILLER:ELECTRIC:REFORMULATEDEIR "SGP_CHILLER": The condenser outlet temperature (30.91 C) is outside the range of condenser outlet temperatures (X var) given in Electric Input to Cooling Output Ratio Function of Part-load Ratio bicubic curve = WC_CENT_GT600_2010_PA_EIRFPLR
   **   ~~~   ** The range specified = 31.13 C to 36.52 C. Environment=RUNPERIOD 1, at Simulation time=01/06 07:05 - 07:08
   ** Warning ** CHILLER:ELECTRIC:REFORMULATEDEIR "SGP_CHILLER": The part-load ratio (0.147) is outside the range of part-load ratios (Y var) given in Electric Input to Cooling Output Ratio Function of Part-load Ratio bicubic curve = WC_CENT_GT600_2010_PA_EIRFPLR
   **   ~~~   ** The range specified = 0.190 to 1.030. Environment=RUNPERIOD 1, at Simulation time=01/06 07:05 - 07:08
   ************* Simulation Error Summary *************
   ************* There are 1 unused objects in input.
   ************* Use Output:Diagnostics,DisplayUnusedObjects; to see them.
   ************* There are 38 unused schedules in input.
   ************* There are 36 unused week schedules in input.
   ************* There are 36 unused day schedules in input.
   ************* Use Output:Diagnostics,DisplayUnusedSchedules; to see them.
   *************
   ************* ===== Recurring Error Summary =====
   ************* The following recurring error messages occurred.
   *************
   *************  ** Warning ** CHILLER:ELECTRIC:REFORMULATEDEIR "SGP_CHILLER": The evap outlet temp range in Cooling Capacity Function of Temp curve error continues.
   *************  **   ~~~   **   This error occurred 52878 total times;
   *************  **   ~~~   **   during Warmup 0 times;
   *************  **   ~~~   **   during Sizing 0 times.
   *************  **   ~~~   **   Max=24.364299  Min=15.
   *************
   *************  ** Warning ** CHILLER:ELECTRIC:REFORMULATEDEIR "SGP_CHILLER": The evap outlet temp range in Electric Input to Cooling Output Ratio Function of Temp curve error continues.
   *************  **   ~~~   **   This error occurred 52878 total times;
   *************  **   ~~~   **   during Warmup 0 times;
   *************  **   ~~~   **   during Sizing 0 times.
   *************  **   ~~~   **   Max=24.364299  Min=15.
   *************
   *************  ** Warning ** CHILLER:ELECTRIC:REFORMULATEDEIR "SGP_CHILLER": The cond outlet temp range in Electric Input to Cooling Output Ratio Function of PLR curve error continues.
   *************  **   ~~~   **   This error occurred 5788 total times;
   *************  **   ~~~   **   during Warmup 0 times;
   *************  **   ~~~   **   during Sizing 0 times.
   *************  **   ~~~   **   Max=31.129959  Min=29.659569
   *************
   *************  ** Warning ** CHILLER:ELECTRIC:REFORMULATEDEIR "SGP_CHILLER": The part-load ratio range in Electric Input to Cooling Output Ratio Function of PLRatio curve error continues.
   *************  **   ~~~   **   This error occurred 5748 total times;
   *************  **   ~~~   **   during Warmup 0 times;
   *************  **   ~~~   **   during Sizing 0 times.
   *************  **   ~~~   **   Max=0.189918  Min=0.1
   *************
   *************
   ************* ===== Final Error Summary =====
   ************* The following error categories occurred.  Consider correcting or noting.
   ************* Nominally Unused Constructions
   ************* ..The nominally unused constructions warning is provided to alert you to potential conditions that can cause
   ************* ..extra time during simulation. Each construction is calculated by the algorithm indicated in the HeatBalanceAlgorithm
   ************* ..object. You may remove the constructions indicated (when you use the DisplayExtraWarnings option).
   *************
   ************* EnergyPlus Warmup Error Summary. During Warmup: 0 Warning; 0 Severe Errors.
   ************* EnergyPlus Sizing Error Summary. During Sizing: 22 Warning; 0 Severe Errors.
   ************* EnergyPlus Completed Successfully-- 117325 Warning; 0 Severe Errors; Elapsed Time=00hr 03min 37.22sec
